
**** 12/11/18 10:57:22 ****** PSpice Lite (October 2012) ****** ID# 10813 ****

 ** Profile: "SCHEMATIC1-bias"  [ E:\ELC\project electronics\IDC\idc-pspicefiles\schematic1\bias.sim ] 


 ****     CIRCUIT DESCRIPTION


******************************************************************************




** Creating circuit file "bias.cir" 
** WARNING: THIS AUTOMATICALLY GENERATED FILE MAY BE OVERWRITTEN BY SUBSEQUENT SIMULATIONS

*Libraries: 
* Profile Libraries :
* Local Libraries :
* From [PSPICE NETLIST] section of C:\Users\AL MASRIA 4 COMP\AppData\Roaming\SPB_16.6\cdssetup\OrCAD_PSpice/16.6.0/PSpice.ini file:
.lib "nomd.lib" 

*Analysis directives: 
.DC LIN V_V1 0.1u 1u 0.01u 
.OPTIONS ADVCONV
.PROBE64 V(*) I(*) W(*) D(*) NOISE(*) 
.INC "..\SCHEMATIC1.net" 



**** INCLUDING SCHEMATIC1.net ****
* source IDC
R_R2         N02724 0  8R TC=0,0 
C_C3         N02708 N02724  10u  TC=0,0 
X_U1         0 N02892 N02708 N02660 N02848 N02892 N02888 N02660 555B
V_V1         N02660 0 9V
C_C1         N02892 0  2.2u  TC=0,0 
R_R1         N02708 N02892  47k TC=0,0 
C_C2         N03106 N02892  2.2u  TC=0,0 
I_I1         N03106 N02708 DC 0Adc  

**** RESUMING bias.cir ****
.END

ERROR(ORPSIM-15108): Subcircuit 555B used by X_U1 is undefined
