
**** 12/11/18 11:02:24 ****** PSpice Lite (October 2012) ****** ID# 10813 ****

 ** Profile: "SCHEMATIC1-juhjit"  [ E:\ELC\project electronics\original\lastproject-pspicefiles\schematic1\juhjit.sim ] 


 ****     CIRCUIT DESCRIPTION


******************************************************************************




** Creating circuit file "juhjit.cir" 
** WARNING: THIS AUTOMATICALLY GENERATED FILE MAY BE OVERWRITTEN BY SUBSEQUENT SIMULATIONS

*Libraries: 
* Profile Libraries :
* Local Libraries :
* From [PSPICE NETLIST] section of C:\Users\AL MASRIA 4 COMP\AppData\Roaming\SPB_16.6\cdssetup\OrCAD_PSpice/16.6.0/PSpice.ini file:
.lib "nomd.lib" 

*Analysis directives: 
.DC LIN V_V1 0.1u 1u 0.01u 
.OPTIONS ADVCONV
.PROBE64 V(alias(*)) I(alias(*)) W(alias(*)) D(alias(*)) NOISE(alias(*)) 
.INC "..\SCHEMATIC1.net" 



**** INCLUDING SCHEMATIC1.net ****
* source LASTPROJECT
C_C2         N02111 N02003  2.2u  TC=0,0 
C_C3         N01847 N01863  10u  TC=0,0 
L_L1         N02111 N01847  10mH  
R_R1         N01847 N02003  47k TC=0,0 
C_C1         N02003 N01807  2.2u  TC=0,0 
X_U1         N01807 N02003 N01847 N01799 N02192 N02003 N02196 N01799 555B
V_V1         N01799 N01807 9V

**** RESUMING juhjit.cir ****
.END

ERROR(ORPSIM-15108): Subcircuit 555B used by X_U1 is undefined
